<?xml version="1.0" encoding="UTF-8"?>

<!-- generated on 2022-06-29 10:46:39 by Eclipse SUMO duarouter Version 1.13.0
<configuration xmlns:xsi="http://www.w3.org/2001/XMLSchema-instance" xsi:noNamespaceSchemaLocation="http://sumo.dlr.de/xsd/duarouterConfiguration.xsd">

    <input>
        <net-file value="/home/parallels/Sumo/2022-06-29-10-46-35/osm.net.xml"/>
        <route-files value="/home/parallels/Sumo/2022-06-29-10-46-35/osm.passenger.trips.xml"/>
    </input>

    <output>
        <output-file value="/home/parallels/Sumo/2022-06-29-10-46-35/osm.passenger.trips.xml.tmp"/>
        <write-trips value="true"/>
    </output>

    <time>
        <begin value="0"/>
        <end value="3600"/>
    </time>

    <report>
        <no-warnings value="true"/>
        <ignore-errors value="true"/>
        <no-step-log value="true"/>
    </report>

</configuration>
-->

<routes xmlns:xsi="http://www.w3.org/2001/XMLSchema-instance" xsi:noNamespaceSchemaLocation="http://sumo.dlr.de/xsd/routes_file.xsd">
    <vType id="veh_passenger" vClass="passenger"/>
    <trip id="veh0" type="veh_passenger" depart="0.00" departLane="best" from="38549861" to="-108448667#4"/>
    <trip id="veh1" type="veh_passenger" depart="3.72" departLane="best" from="-90567161#2" to="-51983852"/>
    <trip id="veh2" type="veh_passenger" depart="7.45" departLane="best" from="49778011#0" to="45746298#0"/>
    <trip id="veh3" type="veh_passenger" depart="11.17" departLane="best" departSpeed="max" from="878966984" to="-172656987#0"/>
    <trip id="veh4" type="veh_passenger" depart="14.90" departLane="best" departSpeed="max" from="131344714" to="-116344182#2"/>
    <trip id="veh5" type="veh_passenger" depart="18.62" departLane="best" departSpeed="max" from="-51979622#1" to="28151215#4"/>
    <trip id="veh6" type="veh_passenger" depart="22.34" departLane="best" departSpeed="max" from="-108394674" to="-46431456#1"/>
    <trip id="veh7" type="veh_passenger" depart="26.07" departLane="best" departSpeed="max" from="389113594" to="292716819"/>
    <trip id="veh8" type="veh_passenger" depart="29.79" departLane="best" from="-51979623#1" to="38422756"/>
    <trip id="veh9" type="veh_passenger" depart="33.51" departLane="best" from="51966310#5" to="-106943024#0"/>
    <trip id="veh11" type="veh_passenger" depart="40.96" departLane="best" from="108398106#3" to="-38422753"/>
    <trip id="veh12" type="veh_passenger" depart="44.69" departLane="best" departSpeed="max" from="90919688#0" to="108394674"/>
    <trip id="veh13" type="veh_passenger" depart="48.41" departLane="best" from="-292598876" to="-202077335"/>
    <trip id="veh14" type="veh_passenger" depart="52.13" departLane="best" departSpeed="max" from="51984791#0" to="389117589"/>
    <trip id="veh15" type="veh_passenger" depart="55.86" departLane="best" from="51966310#1" to="49778011#0"/>
    <trip id="veh16" type="veh_passenger" depart="59.58" departLane="best" from="25342586#1" to="90936999#0"/>
    <trip id="veh17" type="veh_passenger" depart="63.31" departLane="best" from="128390402#3" to="293011706"/>
    <trip id="veh18" type="veh_passenger" depart="67.03" departLane="best" from="51980503#0" to="436242103"/>
    <trip id="veh19" type="veh_passenger" depart="70.75" departLane="best" from="609998633" to="383766263"/>
    <trip id="veh20" type="veh_passenger" depart="74.48" departLane="best" departSpeed="max" from="46431191#0" to="-128489098"/>
    <trip id="veh21" type="veh_passenger" depart="78.20" departLane="best" from="-51984498" to="1041425162"/>
    <trip id="veh22" type="veh_passenger" depart="81.93" departLane="best" from="-252962302#1" to="-54168483#1"/>
    <trip id="veh23" type="veh_passenger" depart="85.65" departLane="best" departSpeed="max" from="-32480407" to="-981626992"/>
    <trip id="veh25" type="veh_passenger" depart="93.10" departLane="best" from="128390402#1" to="-51919655#0"/>
    <trip id="veh26" type="veh_passenger" depart="96.82" departLane="best" from="-90282461#1" to="90534476"/>
    <trip id="veh27" type="veh_passenger" depart="100.54" departLane="best" departSpeed="max" from="389113593" to="390612164"/>
    <trip id="veh28" type="veh_passenger" depart="104.27" departLane="best" departSpeed="max" from="-457233042" to="128390402#4"/>
    <trip id="veh29" type="veh_passenger" depart="107.99" departLane="best" departSpeed="max" from="981626991" to="457233003"/>
    <trip id="veh30" type="veh_passenger" depart="111.72" departLane="best" from="27738428#0" to="457485475"/>
    <trip id="veh31" type="veh_passenger" depart="115.44" departLane="best" departSpeed="max" from="51984790#0" to="51944959#0"/>
    <trip id="veh32" type="veh_passenger" depart="119.16" departLane="best" from="107739894#2" to="-980258220#1"/>
    <trip id="veh34" type="veh_passenger" depart="126.61" departLane="best" from="794542658#0" to="107714350"/>
    <trip id="veh36" type="veh_passenger" depart="134.06" departLane="best" from="90317924#0" to="202089428"/>
    <trip id="veh37" type="veh_passenger" depart="137.78" departLane="best" from="28151819" to="-90929949#2"/>
    <trip id="veh38" type="veh_passenger" depart="141.51" departLane="best" from="292590315#1" to="84529639#0"/>
    <trip id="veh39" type="veh_passenger" depart="145.23" departLane="best" departSpeed="max" from="128458880" to="-51983537#0"/>
    <trip id="veh40" type="veh_passenger" depart="148.95" departLane="best" departSpeed="max" from="981854733" to="28543710#2"/>
    <trip id="veh41" type="veh_passenger" depart="152.68" departLane="best" from="-292598869" to="-128490881"/>
    <trip id="veh42" type="veh_passenger" depart="156.40" departLane="best" departSpeed="max" from="-380802808" to="45545331#0"/>
    <trip id="veh43" type="veh_passenger" depart="160.13" departLane="best" from="51965301" to="172031414#2"/>
    <trip id="veh44" type="veh_passenger" depart="163.85" departLane="best" from="-172033064" to="128390402#6"/>
    <trip id="veh45" type="veh_passenger" depart="167.57" departLane="best" departSpeed="max" from="981849687" to="292580872#0"/>
    <trip id="veh46" type="veh_passenger" depart="171.30" departLane="best" departSpeed="max" from="-107222972#1" to="48765288#1"/>
    <trip id="veh47" type="veh_passenger" depart="175.02" departLane="best" from="-90282461#1" to="457233003"/>
    <trip id="veh48" type="veh_passenger" depart="178.75" departLane="best" departSpeed="max" from="-383766263" to="172656988#0"/>
    <trip id="veh49" type="veh_passenger" depart="182.47" departLane="best" departSpeed="max" from="144113618" to="90564197#1"/>
    <trip id="veh50" type="veh_passenger" depart="186.19" departLane="best" from="794542658#0" to="-90936999#0"/>
    <trip id="veh51" type="veh_passenger" depart="189.92" departLane="best" from="234777169#1" to="-457233044"/>
    <trip id="veh52" type="veh_passenger" depart="193.64" departLane="best" from="90282290#0" to="684293314#1"/>
    <trip id="veh53" type="veh_passenger" depart="197.37" departLane="best" from="106941789#1" to="457233003"/>
    <trip id="veh54" type="veh_passenger" depart="201.09" departLane="best" departSpeed="max" from="317067229#0" to="-383773858"/>
    <trip id="veh55" type="veh_passenger" depart="204.81" departLane="best" from="51943859#1" to="292598873"/>
    <trip id="veh57" type="veh_passenger" depart="212.26" departLane="best" departSpeed="max" from="-1041425162" to="107739894#0"/>
    <trip id="veh58" type="veh_passenger" depart="215.98" departLane="best" departSpeed="max" from="-107714352#1" to="90318397#0"/>
    <trip id="veh59" type="veh_passenger" depart="219.71" departLane="best" from="794542658#2" to="51981685"/>
    <trip id="veh60" type="veh_passenger" depart="223.43" departLane="best" from="107690449" to="-131717213#2"/>
    <trip id="veh61" type="veh_passenger" depart="227.16" departLane="best" from="794542658#1" to="90562674"/>
    <trip id="veh62" type="veh_passenger" depart="230.88" departLane="best" departSpeed="max" from="-292559393#1" to="25342588#0"/>
    <trip id="veh63" type="veh_passenger" depart="234.60" departLane="best" departSpeed="max" from="-202089427" to="51943859#2"/>
    <trip id="veh64" type="veh_passenger" depart="238.33" departLane="best" from="51943859#4" to="-292580869#1"/>
    <trip id="veh66" type="veh_passenger" depart="245.78" departLane="best" departSpeed="max" from="-879392020" to="684293315"/>
    <trip id="veh68" type="veh_passenger" depart="253.22" departLane="best" from="25342587#5" to="49778011#0"/>
    <trip id="veh69" type="veh_passenger" depart="256.95" departLane="best" departSpeed="max" from="-48762325" to="107694389"/>
    <trip id="veh70" type="veh_passenger" depart="260.67" departLane="best" departSpeed="max" from="981849687" to="457233009#0"/>
    <trip id="veh71" type="veh_passenger" depart="264.39" departLane="best" departSpeed="max" from="-390612164" to="-51984498"/>
    <trip id="veh72" type="veh_passenger" depart="268.12" departLane="best" from="108398105#1" to="38422756"/>
    <trip id="veh74" type="veh_passenger" depart="275.57" departLane="best" departSpeed="max" from="-51984553" to="879392019"/>
    <trip id="veh75" type="veh_passenger" depart="279.29" departLane="best" from="54168492#1" to="-144113617"/>
    <trip id="veh76" type="veh_passenger" depart="283.01" departLane="best" from="-54168490#0" to="457233045#1"/>
    <trip id="veh77" type="veh_passenger" depart="286.74" departLane="best" from="-51944575#1" to="-292722608#1"/>
    <trip id="veh78" type="veh_passenger" depart="290.46" departLane="best" from="90562917" to="380802799#0"/>
    <trip id="veh79" type="veh_passenger" depart="294.19" departLane="best" departSpeed="max" from="172656987#0" to="51944959#6"/>
    <trip id="veh80" type="veh_passenger" depart="297.91" departLane="best" from="51966310#2" to="-45857525"/>
    <trip id="veh81" type="veh_passenger" depart="301.63" departLane="best" departSpeed="max" from="-292725011" to="172382953"/>
    <trip id="veh83" type="veh_passenger" depart="309.08" departLane="best" from="49777561#2" to="457462782#0"/>
    <trip id="veh84" type="veh_passenger" depart="312.80" departLane="best" from="981597776#1" to="-202077335"/>
    <trip id="veh85" type="veh_passenger" depart="316.53" departLane="best" from="128489092" to="108394682#0"/>
    <trip id="veh86" type="veh_passenger" depart="320.25" departLane="best" from="609998633" to="-886524829"/>
    <trip id="veh87" type="veh_passenger" depart="323.98" departLane="best" departSpeed="max" from="-457485479" to="202089416#0"/>
    <trip id="veh88" type="veh_passenger" depart="327.70" departLane="best" departSpeed="max" from="131344714" to="-981626992"/>
    <trip id="veh89" type="veh_passenger" depart="331.42" departLane="best" departSpeed="max" from="-684293315" to="90282104#0"/>
    <trip id="veh90" type="veh_passenger" depart="335.15" departLane="best" from="137240628#1" to="609998633"/>
    <trip id="veh91" type="veh_passenger" depart="338.87" departLane="best" from="25554738#3" to="-131344714"/>
    <trip id="veh92" type="veh_passenger" depart="342.60" departLane="best" departSpeed="max" from="981854733" to="51984553"/>
    <trip id="veh93" type="veh_passenger" depart="346.32" departLane="best" from="90937834" to="90282461#0"/>
    <trip id="veh94" type="veh_passenger" depart="350.04" departLane="best" departSpeed="max" from="51984791#0" to="-436214976"/>
    <trip id="veh95" type="veh_passenger" depart="353.77" departLane="best" departSpeed="max" from="202077335" to="-51965765#0"/>
    <trip id="veh96" type="veh_passenger" depart="357.49" departLane="best" from="128390402#4" to="980183326#1"/>
    <trip id="veh97" type="veh_passenger" depart="361.22" departLane="best" departSpeed="max" from="-879392020" to="51944959#6"/>
    <trip id="veh98" type="veh_passenger" depart="364.94" departLane="best" departSpeed="max" from="144113619" to="172031414#3"/>
    <trip id="veh99" type="veh_passenger" depart="368.66" departLane="best" from="27738165#0" to="48762325"/>
    <trip id="veh100" type="veh_passenger" depart="372.39" departLane="best" departSpeed="max" from="-457233009#1" to="106941789#3"/>
    <trip id="veh101" type="veh_passenger" depart="376.11" departLane="best" from="90937834" to="38422752"/>
    <trip id="veh102" type="veh_passenger" depart="379.83" departLane="best" from="25342589#0" to="51931681#4"/>
    <trip id="veh103" type="veh_passenger" depart="383.56" departLane="best" from="-172031414#2" to="38422754#6"/>
    <trip id="veh104" type="veh_passenger" depart="387.28" departLane="best" departSpeed="max" from="23847618#0" to="54168483#3"/>
    <trip id="veh105" type="veh_passenger" depart="391.01" departLane="best" departSpeed="max" from="-457233038" to="90565900#0"/>
    <trip id="veh106" type="veh_passenger" depart="394.73" departLane="best" from="-252962302#1" to="-45747139#1"/>
    <trip id="veh107" type="veh_passenger" depart="398.45" departLane="best" from="292713930" to="457462782#0"/>
    <trip id="veh108" type="veh_passenger" depart="402.18" departLane="best" departSpeed="max" from="-52577683" to="-252962296"/>
    <trip id="veh109" type="veh_passenger" depart="405.90" departLane="best" departSpeed="max" from="878966984" to="-879392021#2"/>
    <trip id="veh110" type="veh_passenger" depart="409.63" departLane="best" from="292713930" to="436242103"/>
    <trip id="veh111" type="veh_passenger" depart="413.35" departLane="best" departSpeed="max" from="131344702" to="38422754#6"/>
    <trip id="veh112" type="veh_passenger" depart="417.07" departLane="best" from="-49777561#2" to="48762325"/>
    <trip id="veh113" type="veh_passenger" depart="420.80" departLane="best" from="-54168491" to="128431332#2"/>
    <trip id="veh114" type="veh_passenger" depart="424.52" departLane="best" from="457233005" to="106943024#1"/>
    <trip id="veh115" type="veh_passenger" depart="428.24" departLane="best" from="107739894#3" to="51932373#5"/>
    <trip id="veh117" type="veh_passenger" depart="435.69" departLane="best" from="794542658#3" to="689135970#1"/>
    <trip id="veh118" type="veh_passenger" depart="439.42" departLane="best" from="128390402#0" to="-389113589"/>
    <trip id="veh119" type="veh_passenger" depart="443.14" departLane="best" from="51983537#1" to="45873920#0"/>
    <trip id="veh120" type="veh_passenger" depart="446.86" departLane="best" departSpeed="max" from="317067229#0" to="980183327"/>
    <trip id="veh121" type="veh_passenger" depart="450.59" departLane="best" from="40108908" to="-107223390"/>
    <trip id="veh122" type="veh_passenger" depart="454.31" departLane="best" from="51966928" to="106943024#0"/>
    <trip id="veh125" type="veh_passenger" depart="465.48" departLane="best" departSpeed="max" from="-380802808" to="293011708"/>
    <trip id="veh126" type="veh_passenger" depart="469.21" departLane="best" from="-90564291" to="389117589"/>
    <trip id="veh127" type="veh_passenger" depart="472.93" departLane="best" from="4836585" to="-49777860#1"/>
    <trip id="veh128" type="veh_passenger" depart="476.66" departLane="best" from="38422752" to="-90936999#1"/>
    <trip id="veh129" type="veh_passenger" depart="480.38" departLane="best" from="202089414-AddedOffRampEdge" to="879392019"/>
    <trip id="veh130" type="veh_passenger" depart="484.10" departLane="best" departSpeed="max" from="51984791#0" to="-172659072"/>
    <trip id="veh132" type="veh_passenger" depart="491.55" departLane="best" from="-106941789#1" to="51944574"/>
    <trip id="veh134" type="veh_passenger" depart="499.00" departLane="best" from="51919658#0" to="293011706"/>
    <trip id="veh135" type="veh_passenger" depart="502.72" departLane="best" from="131477198" to="-107223390"/>
    <trip id="veh136" type="veh_passenger" depart="506.45" departLane="best" from="-23847618#3" to="692660680#1"/>
    <trip id="veh137" type="veh_passenger" depart="510.17" departLane="best" from="90280290#0" to="292722608#0"/>
    <trip id="veh138" type="veh_passenger" depart="513.89" departLane="best" from="51983581" to="38422754#4"/>
    <trip id="veh139" type="veh_passenger" depart="517.62" departLane="best" from="-457233007#0" to="-292580869#0"/>
    <trip id="veh140" type="veh_passenger" depart="521.34" departLane="best" from="51965765#1" to="586804627#0"/>
    <trip id="veh141" type="veh_passenger" depart="525.07" departLane="best" from="889270521" to="-51919655#0"/>
    <trip id="veh142" type="veh_passenger" depart="528.79" departLane="best" departSpeed="max" from="-684293315" to="-23847618#0"/>
    <trip id="veh143" type="veh_passenger" depart="532.51" departLane="best" from="51944959#1" to="698884066#0"/>
    <trip id="veh144" type="veh_passenger" depart="536.24" departLane="best" departSpeed="max" from="128489098" to="436242104"/>
    <trip id="veh145" type="veh_passenger" depart="539.96" departLane="best" departSpeed="max" from="-457233009#1" to="90533389#0"/>
    <trip id="veh146" type="veh_passenger" depart="543.68" departLane="best" from="61099266" to="90936999#4"/>
    <trip id="veh147" type="veh_passenger" depart="547.41" departLane="best" from="51966310#8" to="692660680#1"/>
    <trip id="veh148" type="veh_passenger" depart="551.13" departLane="best" from="-108133790#1" to="51917949"/>
    <trip id="veh149" type="veh_passenger" depart="554.86" departLane="best" from="108133795#0" to="90533566#1"/>
    <trip id="veh150" type="veh_passenger" depart="558.58" departLane="best" departSpeed="max" from="51966175" to="61099263#2"/>
    <trip id="veh151" type="veh_passenger" depart="562.30" departLane="best" from="51966310#8" to="-980258220#1"/>
    <trip id="veh152" type="veh_passenger" depart="566.03" departLane="best" from="51944959#6" to="-252951264#1"/>
    <trip id="veh153" type="veh_passenger" depart="569.75" departLane="best" from="698884067#1" to="54168493"/>
    <trip id="veh154" type="veh_passenger" depart="573.48" departLane="best" from="172031414#2" to="107222972#0"/>
    <trip id="veh155" type="veh_passenger" depart="577.20" departLane="best" departSpeed="max" from="51965765#0" to="-51984790#1"/>
    <trip id="veh156" type="veh_passenger" depart="580.92" departLane="best" departSpeed="max" from="-107718643" to="-46431191#2"/>
    <trip id="veh157" type="veh_passenger" depart="584.65" departLane="best" from="108133792#0" to="61099263#2"/>
    <trip id="veh158" type="veh_passenger" depart="588.37" departLane="best" from="90937039" to="-981626992"/>
    <trip id="veh159" type="veh_passenger" depart="592.10" departLane="best" departSpeed="max" from="90564036" to="-252951266#1"/>
    <trip id="veh160" type="veh_passenger" depart="595.82" departLane="best" from="979623783" to="-457233044"/>
    <trip id="veh161" type="veh_passenger" depart="599.54" departLane="best" from="90936695#0" to="-90936999#4"/>
    <trip id="veh162" type="veh_passenger" depart="603.27" departLane="best" departSpeed="max" from="-380802808" to="172656988#0"/>
    <trip id="veh163" type="veh_passenger" depart="606.99" departLane="best" from="49777561#0" to="107714349"/>
    <trip id="veh164" type="veh_passenger" depart="610.71" departLane="best" from="293011706" to="290044038#0"/>
    <trip id="veh165" type="veh_passenger" depart="614.44" departLane="best" from="128390402#8" to="383766263"/>
    <trip id="veh166" type="veh_passenger" depart="618.16" departLane="best" from="-691135486" to="48131975#0"/>
    <trip id="veh167" type="veh_passenger" depart="621.89" departLane="best" departSpeed="max" from="-1041425162" to="90282290#0"/>
    <trip id="veh168" type="veh_passenger" depart="625.61" departLane="best" from="25342587#3" to="48762326#0"/>
    <trip id="veh169" type="veh_passenger" depart="629.33" departLane="best" departSpeed="max" from="51919660#0" to="457306206"/>
    <trip id="veh170" type="veh_passenger" depart="633.06" departLane="best" departSpeed="max" from="125389895#0" to="-144113617"/>
    <trip id="veh172" type="veh_passenger" depart="640.51" departLane="best" from="4836587" to="106943024#2"/>
    <trip id="veh173" type="veh_passenger" depart="644.23" departLane="best" from="107690455#0" to="131477198"/>
    <trip id="veh174" type="veh_passenger" depart="647.95" departLane="best" from="128489092" to="106941789#2"/>
    <trip id="veh176" type="veh_passenger" depart="655.40" departLane="best" from="90564197#0" to="45746333#0"/>
    <trip id="veh177" type="veh_passenger" depart="659.12" departLane="best" from="90279741" to="436242102"/>
    <trip id="veh178" type="veh_passenger" depart="662.85" departLane="best" from="106942659#0" to="292725011"/>
    <trip id="veh179" type="veh_passenger" depart="666.57" departLane="best" departSpeed="max" from="-1041425162" to="1006427029"/>
    <trip id="veh180" type="veh_passenger" depart="670.30" departLane="best" departSpeed="max" from="131717213#0" to="38422753"/>
    <trip id="veh181" type="veh_passenger" depart="674.02" departLane="best" from="40109016#0" to="23847622#0"/>
    <trip id="veh182" type="veh_passenger" depart="677.74" departLane="best" departSpeed="max" from="172656987#0" to="878966978"/>
    <trip id="veh184" type="veh_passenger" depart="685.19" departLane="best" from="-25342586#1" to="292559395#0"/>
    <trip id="veh185" type="veh_passenger" depart="688.92" departLane="best" departSpeed="max" from="383773858" to="108133795#0"/>
    <trip id="veh186" type="veh_passenger" depart="692.64" departLane="best" from="51966984#0" to="51932373#3"/>
    <trip id="veh187" type="veh_passenger" depart="696.36" departLane="best" from="457233006" to="-51984498"/>
    <trip id="veh188" type="veh_passenger" depart="700.09" departLane="best" from="-46431456#1" to="-108448667#4"/>
    <trip id="veh189" type="veh_passenger" depart="703.81" departLane="best" from="-684293314#0" to="25342582#4"/>
    <trip id="veh190" type="veh_passenger" depart="707.54" departLane="best" from="51984959" to="-144113618"/>
    <trip id="veh191" type="veh_passenger" depart="711.26" departLane="best" from="129100471" to="45563880"/>
    <trip id="veh192" type="veh_passenger" depart="714.98" departLane="best" departSpeed="max" from="-457485480" to="45857943#0"/>
    <trip id="veh193" type="veh_passenger" depart="718.71" departLane="best" from="202089416#1" to="-879392021#2"/>
    <trip id="veh195" type="veh_passenger" depart="726.15" departLane="best" from="51931681#4" to="51944573"/>
    <trip id="veh196" type="veh_passenger" depart="729.88" departLane="best" departSpeed="max" from="-37211189#1" to="172031414#3"/>
    <trip id="veh197" type="veh_passenger" depart="733.60" departLane="best" departSpeed="max" from="-457306206" to="90564376#1"/>
    <trip id="veh198" type="veh_passenger" depart="737.33" departLane="best" departSpeed="max" from="252951266#0" to="-131344714"/>
    <trip id="veh199" type="veh_passenger" depart="741.05" departLane="best" departSpeed="max" from="-684293315" to="52577683"/>
    <trip id="veh200" type="veh_passenger" depart="744.77" departLane="best" departSpeed="max" from="144113619" to="51966196"/>
    <trip id="veh202" type="veh_passenger" depart="752.22" departLane="best" from="292713931" to="90563953#3"/>
    <trip id="veh203" type="veh_passenger" depart="755.95" departLane="best" from="4836587" to="28151215#1"/>
    <trip id="veh204" type="veh_passenger" depart="759.67" departLane="best" from="886523595" to="51931681#1"/>
    <trip id="veh205" type="veh_passenger" depart="763.39" departLane="best" from="172656987#1" to="-90919688#0"/>
    <trip id="veh206" type="veh_passenger" depart="767.12" departLane="best" departSpeed="max" from="-684293314#1" to="457233001"/>
    <trip id="veh207" type="veh_passenger" depart="770.84" departLane="best" from="51943859#4" to="292574883#0"/>
    <trip id="veh208" type="veh_passenger" depart="774.56" departLane="best" from="-252951266#4" to="-981854733"/>
    <trip id="veh209" type="veh_passenger" depart="778.29" departLane="best" departSpeed="max" from="-90563953#3" to="107718643"/>
    <trip id="veh210" type="veh_passenger" depart="782.01" departLane="best" from="25342587#6" to="-317067229#1"/>
    <trip id="veh211" type="veh_passenger" depart="785.74" departLane="best" departSpeed="max" from="-51984553" to="457485480"/>
    <trip id="veh212" type="veh_passenger" depart="789.46" departLane="best" departSpeed="max" from="46431191#0" to="-137240627"/>
    <trip id="veh215" type="veh_passenger" depart="800.63" departLane="best" departSpeed="max" from="131344714" to="879392019"/>
    <trip id="veh216" type="veh_passenger" depart="804.36" departLane="best" from="292589758#0" to="45857441"/>
    <trip id="veh217" type="veh_passenger" depart="808.08" departLane="best" from="54168487#1" to="51943859#6"/>
    <trip id="veh218" type="veh_passenger" depart="811.80" departLane="best" from="128390402#5" to="-106942659#1"/>
    <trip id="veh219" type="veh_passenger" depart="815.53" departLane="best" from="116344190" to="51932451#0"/>
    <trip id="veh220" type="veh_passenger" depart="819.25" departLane="best" from="51985388" to="90564197#0"/>
    <trip id="veh221" type="veh_passenger" depart="822.97" departLane="best" departSpeed="max" from="131344702" to="51931681#4"/>
    <trip id="veh222" type="veh_passenger" depart="826.70" departLane="best" from="25554683#1" to="389113592"/>
    <trip id="veh223" type="veh_passenger" depart="830.42" departLane="best" from="-51979623#1" to="-51983537#0"/>
    <trip id="veh224" type="veh_passenger" depart="834.15" departLane="best" departSpeed="max" from="132933380" to="-108457456#1"/>
    <trip id="veh225" type="veh_passenger" depart="837.87" departLane="best" departSpeed="max" from="108398102" to="45747139#1"/>
    <trip id="veh226" type="veh_passenger" depart="841.59" departLane="best" departSpeed="max" from="128489098" to="-436214976"/>
    <trip id="veh227" type="veh_passenger" depart="845.32" departLane="best" from="172033065" to="-292580869#0"/>
    <trip id="veh228" type="veh_passenger" depart="849.04" departLane="best" from="35137501" to="-108457456#0"/>
    <trip id="veh229" type="veh_passenger" depart="852.77" departLane="best" from="128392215#1" to="35137501"/>
    <trip id="veh230" type="veh_passenger" depart="856.49" departLane="best" departSpeed="max" from="-108394674" to="457233005"/>
    <trip id="veh231" type="veh_passenger" depart="860.21" departLane="best" departSpeed="max" from="-457211804#2" to="234777169#1"/>
    <trip id="veh232" type="veh_passenger" depart="863.94" departLane="best" from="-131477198" to="128390402#4"/>
    <trip id="veh234" type="veh_passenger" depart="871.39" departLane="best" from="51943859#1" to="128390402#4"/>
    <trip id="veh235" type="veh_passenger" depart="875.11" departLane="best" from="51931775" to="51981685"/>
    <trip id="veh236" type="veh_passenger" depart="878.83" departLane="best" departSpeed="max" from="-688557799" to="-172032548#0"/>
    <trip id="veh237" type="veh_passenger" depart="882.56" departLane="best" departSpeed="max" from="-107714352#1" to="292598873"/>
    <trip id="veh238" type="veh_passenger" depart="886.28" departLane="best" departSpeed="max" from="981854733" to="108448667#6"/>
    <trip id="veh239" type="veh_passenger" depart="890.00" departLane="best" departSpeed="max" from="389113594" to="51944959#5"/>
    <trip id="veh240" type="veh_passenger" depart="893.73" departLane="best" from="90567158#1" to="-48765289"/>
    <trip id="veh241" type="veh_passenger" depart="897.45" departLane="best" departSpeed="max" from="-107714352#1" to="-383773858"/>
    <trip id="veh243" type="veh_passenger" depart="904.90" departLane="best" from="28543710#2" to="-51980503#2"/>
    <trip id="veh244" type="veh_passenger" depart="908.62" departLane="best" from="45873919#1" to="51943859#6-AddedOnRampEdge"/>
    <trip id="veh245" type="veh_passenger" depart="912.35" departLane="best" departSpeed="max" from="-457233043" to="389255406"/>
    <trip id="veh246" type="veh_passenger" depart="916.07" departLane="best" from="51931681#2" to="-252951266#0"/>
    <trip id="veh247" type="veh_passenger" depart="919.80" departLane="best" from="51966984#2" to="90919863#0"/>
    <trip id="veh248" type="veh_passenger" depart="923.52" departLane="best" departSpeed="max" from="-380802808" to="-108448667#5"/>
    <trip id="veh249" type="veh_passenger" depart="927.24" departLane="best" from="107717885#0" to="45746333#0"/>
    <trip id="veh250" type="veh_passenger" depart="930.97" departLane="best" from="90919688#1" to="128431814"/>
    <trip id="veh251" type="veh_passenger" depart="934.69" departLane="best" from="48131975#0" to="-144113619"/>
    <trip id="veh252" type="veh_passenger" depart="938.41" departLane="best" from="45747188#1" to="45512485#0"/>
    <trip id="veh253" type="veh_passenger" depart="942.14" departLane="best" departSpeed="max" from="-32480407" to="51944575#1"/>
    <trip id="veh254" type="veh_passenger" depart="945.86" departLane="best" from="51985255#0" to="389113592"/>
    <trip id="veh255" type="veh_passenger" depart="949.59" departLane="best" departSpeed="max" from="-390612164" to="980180828"/>
    <trip id="veh256" type="veh_passenger" depart="953.31" departLane="best" from="51944959#4" to="108448667#3"/>
    <trip id="veh257" type="veh_passenger" depart="957.03" departLane="best" departSpeed="max" from="131717213#0" to="128390402#1"/>
    <trip id="veh258" type="veh_passenger" depart="960.76" departLane="best" from="23847618#4" to="108398105#0"/>
    <trip id="veh260" type="veh_passenger" depart="968.21" departLane="best" departSpeed="max" from="-37211189#1" to="90565900#0"/>
    <trip id="veh261" type="veh_passenger" depart="971.93" departLane="best" from="38422754#0" to="51980502#0"/>
    <trip id="veh262" type="veh_passenger" depart="975.65" departLane="best" from="46431191#3" to="172656988#0"/>
    <trip id="veh263" type="veh_passenger" depart="979.38" departLane="best" departSpeed="max" from="49777860#0" to="90923379#0"/>
    <trip id="veh264" type="veh_passenger" depart="983.10" departLane="best" departSpeed="max" from="-90563953#3" to="51966310#9"/>