<?xml version="1.0" encoding="UTF-8"?>

<!-- generated on 2022-06-29 10:46:39 by Eclipse SUMO netconvert Version 1.13.0
<configuration xmlns:xsi="http://www.w3.org/2001/XMLSchema-instance" xsi:noNamespaceSchemaLocation="http://sumo.dlr.de/xsd/netconvertConfiguration.xsd">

    <input>
        <type-files value="/usr/share/sumo/data/typemap/osmNetconvert.typ.xml"/>
        <osm-files value="osm_bbox.osm.xml.gz"/>
    </input>

    <output>
        <output-file value="osm.net.xml"/>
        <output.street-names value="true"/>
        <output.original-names value="true"/>
    </output>

    <projection>
        <proj.utm value="true"/>
    </projection>

    <processing>
        <geometry.remove value="true"/>
        <roundabouts.guess value="true"/>
    </processing>

    <tls_building>
        <tls.discard-simple value="true"/>
        <tls.join value="true"/>
        <tls.guess-signals value="true"/>
        <tls.default-type value="actuated"/>
    </tls_building>

    <ramp_guessing>
        <ramps.guess value="true"/>
    </ramp_guessing>

    <edge_removal>
        <keep-edges.by-vclass value="passenger"/>
    </edge_removal>

    <junctions>
        <junctions.join value="true"/>
        <junctions.corner-detail value="5"/>
    </junctions>

    <report>
        <verbose value="true"/>
        <aggregate-warnings value="5"/>
    </report>

</configuration>
-->

<net version="1.9" junctionCornerDetail="5" limitTurnSpeed="5.50" xmlns:xsi="http://www.w3.org/2001/XMLSchema-instance" xsi:noNamespaceSchemaLocation="http://sumo.dlr.de/xsd/net_file.xsd">

    <location netOffset="-284034.07,-5059233.30" convBoundary="0.00,0.00,2733.43,2621.53" origBoundary="12.174665,45.556841,12.446427,45.678423" projParameter="+proj=utm +zone=33 +ellps=WGS84 +datum=WGS84 +units=m +no_defs"/>

    <type id="highway.bridleway" priority="1" numLanes="1" speed="2.78" allow="pedestrian" oneway="1" width="2.00"/>
    <type id="highway.bus_guideway" priority="1" numLanes="1" speed="27.78" allow="bus" oneway="1"/>
    <type id="highway.cycleway" priority="1" numLanes="1" speed="8.33" allow="bicycle" oneway="0" width="1.00"/>
    <type id="highway.footway" priority="1" numLanes="1" speed="2.78" allow="pedestrian" oneway="1" width="2.00"/>
    <type id="highway.ford" priority="1" numLanes="1" speed="2.78" allow="army" oneway="0"/>
    <type id="highway.living_street" priority="2" numLanes="1" speed="2.78" disallow="tram rail_urban rail rail_electric rail_fast ship" oneway="0"/>
    <type id="highway.motorway" priority="14" numLanes="2" speed="39.44" allow="private emergency authority army vip passenger hov taxi bus coach delivery truck trailer motorcycle evehicle custom1 custom2" oneway="1"/>
    <type id="highway.motorway_link" priority="9" numLanes="1" speed="22.22" allow="private emergency authority army vip passenger hov taxi bus coach delivery truck trailer motorcycle evehicle custom1 custom2" oneway="1"/>
    <type id="highway.path" priority="1" numLanes="1" speed="2.78" allow="pedestrian bicycle" oneway="0" width="2.00"/>
    <type id="highway.pedestrian" priority="1" numLanes="1" speed="2.78" allow="pedestrian" oneway="1" width="2.00"/>
    <type id="highway.primary" priority="12" numLanes="2" speed="27.78" disallow="tram rail_urban rail rail_electric rail_fast ship" oneway="0"/>
    <type id="highway.primary_link" priority="7" numLanes="1" speed="22.22" disallow="tram rail_urban rail rail_electric rail_fast ship" oneway="0"/>
    <type id="highway.raceway" priority="15" numLanes="2" speed="83.33" allow="vip" oneway="0"/>
    <type id="highway.residential" priority="3" numLanes="1" speed="13.89" disallow="tram rail_urban rail rail_electric rail_fast ship" oneway="0"/>
    <type id="highway.secondary" priority="11" numLanes="1" speed="27.78" disallow="tram rail_urban rail rail_electric rail_fast ship" oneway="0"/>
    <type id="highway.secondary_link" priority="6" numLanes="1" speed="22.22" disallow="tram rail_urban rail rail_electric rail_fast ship" oneway="0"/>
    <type id="highway.service" priority="1" numLanes="1" speed="5.56" allow="pedestrian delivery bicycle" oneway="0"/>
    <type id="highway.stairs" priority="1" numLanes="1" speed="1.39" allow="pedestrian" oneway="1" width="2.00"/>
    <type id="highway.step" priority="1" numLanes="1" speed="1.39" allow="pedestrian" oneway="1" width="2.00"/>
    <type id="highway.steps" priority="1" numLanes="1" speed="1.39" allow="pedestrian" oneway="1" width="2.00"/>
    <type id="highway.tertiary" priority="10" numLanes="1" speed="22.22" disallow="tram rail_urban rail rail_electric rail_fast ship" oneway="0"/>
    <type id="highway.tertiary_link" priority="5" numLanes="1" speed="22.22" disallow="tram rail_urban rail rail_electric rail_fast ship" oneway="0"/>
    <type id="highway.track" priority="1" numLanes="1" speed="5.56" allow="pedestrian motorcycle moped bicycle" oneway="0"/>
    <type id="highway.trunk" priority="13" numLanes="2" speed="27.78" disallow="pedestrian bicycle tram rail_urban rail rail_electric rail_fast ship" oneway="0"/>
    <type id="highway.trunk_link" priority="8" numLanes="1" speed="22.22" disallow="pedestrian bicycle tram rail_urban rail rail_electric rail_fast ship" oneway="0"/>
    <type id="highway.unclassified" priority="4" numLanes="1" speed="13.89" disallow="tram rail_urban rail rail_electric rail_fast ship" oneway="0"/>
    <type id="highway.unsurfaced" priority="1" numLanes="1" speed="8.33" disallow="tram rail_urban rail rail_electric rail_fast ship" oneway="0"/>
    <type id="railway.highspeed" priority="21" numLanes="1" speed="69.44" allow="rail_fast" oneway="1"/>
    <type id="railway.light_rail" priority="19" numLanes="1" speed="27.78" allow="rail_urban" oneway="1"/>
    <type id="railway.preserved" priority="16" numLanes="1" speed="27.78" allow="rail" oneway="1"/>
    <type id="railway.rail" priority="20" numLanes="1" speed="44.44" allow="rail" oneway="1"/>
    <type id="railway.subway" priority="18" numLanes="1" speed="27.78" allow="rail_urban" oneway="1"/>
    <type id="railway.tram" priority="17" numLanes="1" speed="13.89" allow="tram" oneway="1"/>

    <edge id=":1046821273_0" function="internal">
        <lane id=":1046821273_0_0" index="0" disallow="tram rail_urban rail rail_electric rail_fast ship" speed="6.96" length="7.02" shape="1183.78,1187.65 1185.11,1188.70 1186.64,1189.25 1188.37,1189.31 1190.29,1188.87"/>
    </edge>
    <edge id=":1046821273_1" function="internal">
        <lane id=":1046821273_1_0" index="0" disallow="tram rail_urban rail rail_electric rail_fast ship" speed="13.89" length="7.80" shape="1183.78,1187.65 1185.34,1189.35 1186.28,1190.63 1186.99,1192.06 1187.89,1194.19"/>
    </edge>
    <edge id=":1046825040_0" function="internal">
        <lane id=":1046825040_0_0" index="0" disallow="tram rail_urban rail rail_electric rail_fast ship" speed="13.89" length="5.67" shape="1206.64,1232.34 1204.98,1232.60 1203.86,1232.88 1202.79,1233.33 1201.30,1234.10"/>
    </edge>
    <edge id=":1046825040_1" function="internal">
        <lane id=":1046825040_1_0" index="0" disallow="tram rail_urban rail rail_electric rail_fast ship" speed="5.14" length="1.47" shape="1202.79,1229.99 1203.12,1231.27 1203.10,1231.42"/>
    </edge>
    <edge id=":1046825040_2" function="internal">
        <lane id=":1046825040_2_0" index="0" disallow="tram rail_urban rail rail_electric rail_fast ship" speed="5.14" length="3.42" shape="1203.10,1231.42 1202.99,1232.39 1202.38,1233.33 1201.30,1234.10"/>
    </edge>
    <edge id=":1046827160_0" function="internal">
        <lane id=":1046827160_0_0" index="0" disallow="tram rail_urban rail rail_electric rail_fast ship" speed="13.89" length="5.99" shape="1221.36,1176.38 1221.84,1178.09 1222.21,1179.25 1222.65,1180.39 1223.35,1182.02"/>
    </edge>
    <edge id=":1046827160_1" function="internal">
        <lane id=":1046827160_1_0" index="0" disallow="tram rail_urban rail rail_electric rail_fast ship" speed="5.26" length="1.38" shape="1219.23,1180.22 1220.60,1180.01"/>
    </edge>
    <edge id=":1046827160_2" function="internal">
        <lane id=":1046827160_2_0" index="0" disallow="tram rail_urban rail rail_electric rail_fast ship" speed="5.26" length="3.61" shape="1220.60,1180.01 1221.74,1180.24 1222.66,1180.91 1223.35,1182.02"/>
    </edge>
    <edge id=":1046833089_0" function="internal">
        <lane id=":1046833089_0_0" index="0" disallow="tram rail_urban rail rail_electric rail_fast ship" speed="6.84" length="9.53" shape="1144.90,1288.20 1142.51,1287.00 1140.31,1286.78 1138.30,1287.53 1136.48,1289.24"/>
    </edge>
    <edge id=":1046833089_1" function="internal">
        <lane id=":1046833089_1_0" index="0" disallow="tram rail_urban rail rail_electric rail_fast ship" speed="13.89" length="12.59" shape="1144.90,1288.20 1142.15,1286.25 1139.89,1284.39 1137.82,1282.32 1135.63,1279.76"/>
    </edge>
    <edge id=":1046833089_2" function="internal">
        <lane id=":1046833089_2_0" index="0" disallow="tram rail_urban rail rail_electric rail_fast ship" speed="3.65" length="1.44" shape="1144.90,1288.20 1144.36,1286.86"/>
    </edge>
    <edge id=":1046833089_9" function="internal">
        <lane id=":1046833089_9_0" index="0" disallow="tram rail_urban rail rail_electric rail_fast ship" speed="3.65" length="3.23" shape="1144.36,1286.86 1144.47,1285.98 1145.25,1285.54 1146.69,1285.54"/>
    </edge>
    <edge id=":1046833089_3" function="internal">
        <lane id=":1046833089_3_0" index="0" disallow="tram rail_urban rail rail_electric rail_fast ship" speed="6.13" length="9.06" shape="1145.98,1278.02 1144.44,1280.07 1144.05,1282.00 1144.80,1283.83 1146.69,1285.54"/>
    </edge>
    <edge id=":1046833089_4" function="internal">
        <lane id=":1046833089_4_0" index="0" disallow="tram rail_urban rail rail_electric rail_fast ship" speed="13.89" length="14.70" shape="1145.98,1278.02 1143.43,1280.71 1141.06,1283.48 1138.77,1286.33 1136.48,1289.24"/>
    </edge>
    <edge id=":1046833089_5" function="internal">
        <lane id=":1046833089_5_0" index="0" disallow="tram rail_urban rail rail_electric rail_fast ship" speed="7.17" length="12.08" shape="1145.98,1278.02 1142.89,1280.56 1140.14,1281.70 1137.72,1281.43 1135.63,1279.76"/>
    </edge>
    <edge id=":1046833089_6" function="internal">
        <lane id=":1046833089_6_0" index="0" disallow="tram rail_urban rail rail_electric rail_fast ship" speed="13.89" length="11.65" shape="1138.12,1277.75 1140.20,1280.21 1142.03,1282.05 1144.05,1283.69 1146.69,1285.54"/>
    </edge>
    <edge id=":1046833089_7" function="internal">
        <lane id=":1046833089_7_0" index="0" disallow="tram rail_urban rail rail_electric rail_fast ship" speed="8.27" length="2.78" shape="1138.12,1277.75 1139.42,1280.20"/>
    </edge>
    <edge id=":1046833089_8" function="internal">
        <lane id=":1046833089_8_0" index="0" disallow="tram rail_urban rail rail_electric rail_fast ship" speed="3.65" length="1.44" shape="1138.12,1277.75 1138.25,1279.18"/>
    </edge>
    <edge id=":1046833089_10" function="internal">
        <lane id=":1046833089_10_0" index="0" disallow="tram rail_urban rail rail_electric rail_fast ship" speed="8.27" length="9.82" shape="1139.42,1280.20 1139.58,1282.94 1138.60,1285.95 1136.48,1289.24"/>
    </edge>
    <edge id=":1046833089_11" function="internal">
        <lane id=":1046833089_11_0" index="0" disallow="tram rail_urban rail rail_electric rail_fast ship" speed="3.65" length="3.23" shape="1138.25,1279.18 1137.88,1280.00 1137.01,1280.19 1135.63,1279.76"/>
    </edge>
    <edge id=":1046833094_0" function="internal">
        <lane id=":1046833094_0_0" index="0" disallow="tram rail_urban rail rail_electric rail_fast ship" speed="6.38" length="9.04" shape="1099.97,1215.99 1098.74,1213.82 1097.13,1212.61 1095.12,1212.36 1092.73,1213.07"/>
    </edge>
    <edge id=":1046833094_1" function="internal">
        <lane id=":1046833094_1_0" index="0" disallow="tram rail_urban rail rail_electric rail_fast ship" speed="8.02" length="14.37" shape="1099.97,1215.99 1099.06,1212.12 1099.59,1208.91 1101.56,1206.36 1104.98,1204.47"/>
    </edge>
    <edge id=":1046833094_2" function="internal">
        <lane id=":1046833094_2_0" index="0" disallow="tram rail_urban rail rail_electric rail_fast ship" speed="3.65" length="4.67" shape="1099.97,1215.99 1100.28,1214.59 1100.88,1213.92 1101.77,1214.01 1102.95,1214.83"/>
    </edge>
    <edge id=":1046833094_3" function="internal">
        <lane id=":1046833094_3_0" index="0" disallow="tram rail_urban rail rail_electric rail_fast ship" speed="6.53" length="9.17" shape="1106.11,1207.46 1103.94,1208.66 1102.69,1210.30 1102.36,1212.35 1102.95,1214.83"/>
    </edge>
    <edge id=":1046833094_4" function="internal">
        <lane id=":1046833094_4_0" index="0" disallow="tram rail_urban rail rail_electric rail_fast ship" speed="13.89" length="14.51" shape="1106.11,1207.46 1092.73,1213.07"/>
    </edge>
    <edge id=":1046833094_5" function="internal">
        <lane id=":1046833094_5_0" index="0" disallow="tram rail_urban rail rail_electric rail_fast ship" speed="3.65" length="1.44" shape="1106.11,1207.46 1104.70,1207.13"/>
    </edge>
    <edge id=":1046833094_12" function="internal">
        <lane id=":1046833094_12_0" index="0" disallow="tram rail_urban rail rail_electric rail_fast ship" speed="3.65" length="3.23" shape="1104.70,1207.13 1104.05,1206.53 1104.14,1205.64 1104.98,1204.47"/>
    </edge>
    <edge id=":1046833094_6" function="internal">
        <lane id=":1046833094_6_0" index="0" disallow="tram rail_urban rail rail_electric rail_fast ship" speed="6.65" length="10.12" shape="1096.79,1201.44 1097.89,1203.70 1099.62,1204.96 1101.98,1205.22 1104.98,1204.47"/>
    </edge>
    <edge id=":1046833094_7" function="internal">
        <lane id=":1046833094_7_0" index="0" disallow="tram rail_urban rail rail_electric rail_fast ship" speed="13.89" length="14.76" shape="1096.79,1201.44 1098.07,1204.91 1099.70,1208.20 1101.42,1211.45 1102.95,1214.83"/>
    </edge>
    <edge id=":1046833094_8" function="internal">
        <lane id=":1046833094_8_0" index="0" disallow="tram rail_urban rail rail_electric rail_fast ship" speed="8.32" length="13.57" shape="1096.79,1201.44 1097.45,1205.41 1096.99,1208.67 1095.42,1211.22 1092.73,1213.07"/>
    </edge>
    <edge id=":1046833094_9" function="internal">
        <lane id=":1046833094_9_0" index="0" disallow="tram rail_urban rail rail_electric rail_fast ship" speed="13.89" length="14.73" shape="1091.39,1210.16 1104.98,1204.47"/>
    </edge>
    <edge id=":1046833094_10" function="internal">
        <lane id=":1046833094_10_0" index="0" disallow="tram rail_urban rail rail_electric rail_fast ship" speed="7.90" length="4.38" shape="1091.39,1210.16 1095.21,1209.03 1095.61,1209.07"/>
    </edge>
    <edge id=":1046833094_11" function="internal">
        <lane id=":1046833094_11_0" index="0" disallow="tram rail_urban rail rail_electric rail_fast ship" speed="3.65" length="1.44" shape="1091.39,1210.16 1092.81,1210.38"/>
    </edge>
    <edge id=":1046833094_13" function="internal">
        <lane id=":1046833094_13_0" index="0" disallow="tram rail_urban rail rail_electric rail_fast ship" speed="7.90" length="10.04" shape="1095.61,1209.07 1098.41,1209.43 1100.99,1211.36 1102.95,1214.83"/>
    </edge>
    <edge id=":1046833094_14" function="internal">
        <lane id=":1046833094_14_0" index="0" disallow="tram rail_urban rail rail_electric rail_fast ship" speed="3.65" length="3.23" shape="1092.81,1210.38 1093.51,1210.94 1093.48,1211.84 1092.73,1213.07"/>
    </edge>
    <edge id=":1046885742_0" function="internal">
        <lane id=":1046885742_0_0" index="0" disallow="tram rail_urban rail rail_electric rail_fast ship" speed="6.12" length="1.00" shape="1308.81,1430.80 1308.50,1429.85"/>
    </edge>
    <edge id=":1046885742_1" function="internal">
        <lane id=":1046885742_1_0" index="0" disallow="tram rail_urban rail rail_electric rail_fast ship" speed="3.65" length="0.90" shape="1308.81,1430.80 1308.81,1429.90"/>
    </edge>
    <edge id=":1046885742_4" function="internal">
        <lane id=":1046885742_4_0" index="0" disallow="tram rail_urban rail rail_electric rail_fast ship" speed="6.12" length="6.84" shape="1308.50,1429.85 1308.36,1429.41 1308.79,1427.92 1310.10,1426.32 1312.29,1424.64"/>
    </edge>
    <edge id=":1046885742_5" function="internal">
        <lane id=":1046885742_5_0" index="0" disallow="tram rail_urban rail rail_electric rail_fast ship" speed="3.65" length="3.77" shape="1308.81,1429.90 1308.82,1429.36 1309.27,1428.58 1310.15,1428.48 1311.48,1429.04"/>
    </edge>
    <edge id=":1046885742_2" function="internal">
        <lane id=":1046885742_2_0" index="0" disallow="tram rail_urban rail rail_electric rail_fast ship" speed="13.89" length="9.46" shape="1304.50,1430.00 1312.29,1424.64"/>
    </edge>
    <edge id=":1046885742_3" function="internal">
        <lane id=":1046885742_3_0" index="0" disallow="tram rail_urban rail rail_electric rail_fast ship" speed="6.04" length="7.86" shape="1304.50,1430.00 1306.88,1428.55 1308.83,1427.91 1310.37,1428.07 1311.48,1429.04"/>
    </edge>
    <edge id=":1046892058_0" function="internal">
        <lane id=":1046892058_0_0" index="0" disallow="tram rail_urban rail rail_electric rail_fast ship" speed="6.35" length="9.04" shape="1091.19,1141.36 1088.72,1141.78 1087.04,1142.89 1086.15,1144.70 1086.04,1147.20"/>
    </edge>
    <edge id=":1046892058_1" function="internal">
        <lane id=":1046892058_1_0" index="0" disallow="tram rail_urban rail rail_electric rail_fast ship" speed="13.89" length="11.14" shape="1091.19,1141.36 1080.06,1141.38"/>
    </edge>
    <edge id=":1046900715_0" function="internal">
        <lane id=":1046900715_0_0" index="0" disallow="tram rail_urban rail rail_electric rail_fast ship" speed="6.55" length="9.07" shape="990.75,1146.78 990.13,1144.34 988.90,1142.68 987.07,1141.79 984.63,1141.66"/>
    </edge>
    <edge id=":1046900715_1" function="internal">
        <lane id=":1046900715_1_0" index="0" disallow="tram rail_urban rail rail_electric rail_fast ship" speed="13.89" length="11.19" shape="995.80,1140.99 984.63,1141.66"/>
    </edge>
    <edge id=":1046902012_0" function="internal">
        <lane id=":1046902012_0_0" index="0" disallow="tram rail_urban rail rail_electric rail_fast ship" speed="6.47" length="9.92" shape="1021.86,1140.57 1018.87,1140.92 1016.85,1141.99 1015.81,1143.80 1015.73,1146.33"/>
    </edge>
    <edge id=":1046902012_1" function="internal">
        <lane id=":1046902012_1_0" index="0" disallow="tram rail_urban rail rail_electric rail_fast ship" speed="13.89" length="14.48" shape="1021.86,1140.57 1007.39,1140.69"/>
    </edge>
    <edge id=":1046902012_2" function="internal">
        <lane id=":1046902012_2_0" index="0" disallow="tram rail_urban rail rail_electric rail_fast ship" speed="8.06" length="12.31" shape="1021.86,1140.57 1018.04,1140.19 1015.16,1139.10 1013.21,1137.28 1012.20,1134.76"/>
    </edge>
    <edge id=":1046902012_3" function="internal">
        <lane id=":1046902012_3_0" index="0" disallow="tram rail_urban rail rail_electric rail_fast ship" speed="13.89" length="12.19" shape="1015.34,1134.16 1015.70,1137.44 1015.62,1140.23 1015.50,1143.03 1015.73,1146.33"/>
    </edge>
    <edge id=":1046902012_4" function="internal">
        <lane id=":1046902012_4_0" index="0" disallow="tram rail_urban rail rail_electric rail_fast ship" speed="7.04" length="1.82" shape="1015.34,1134.16 1015.31,1135.99"/>
    </edge>
    <edge id=":1046902012_5" function="internal">
        <lane id=":1046902012_5_0" index="0" disallow="tram rail_urban rail rail_electric rail_fast ship" speed="3.65" length="1.26" shape="1015.34,1134.16 1014.85,1135.32"/>
    </edge>
    <edge id=":1046902012_6" function="internal">
        <lane id=":1046902012_6_0" index="0" disallow="tram rail_urban rail rail_electric rail_fast ship" speed="7.04" length="10.23" shape="1015.31,1135.99 1015.29,1136.93 1013.95,1138.94 1011.31,1140.19 1007.39,1140.69"/>
    </edge>
    <edge id=":1046902012_7" function="internal">
        <lane id=":1046902012_7_0" index="0" disallow="tram rail_urban rail rail_electric rail_fast ship" speed="3.65" length="3.42" shape="1014.85,1135.32 1014.78,1135.49 1014.07,1136.03 1013.21,1135.79 1012.20,1134.76"/>
    </edge>
    <edge id=":1046902015_0" function="internal">
        <lane id=":1046902015_0_0" index="0" disallow="tram rail_urban rail rail_electric rail_fast ship" speed="13.89" length="11.20" shape="1031.12,1218.03 1034.50,1228.71"/>
    </edge>
    <edge id=":1046902015_1" function="internal">
        <lane id=":1046902015_1_0" index="0" disallow="tram rail_urban rail rail_electric rail_fast ship" speed="6.14" length="9.06" shape="1031.12,1218.03 1031.49,1220.55 1030.90,1222.44 1029.37,1223.69 1026.89,1224.30"/>
    </edge>
    <edge id=":1046903253_0" function="internal">
        <lane id=":1046903253_0_0" index="0" disallow="tram rail_urban rail rail_electric rail_fast ship" speed="13.89" length="11.17" shape="998.35,1232.71 997.52,1221.57"/>
    </edge>
    <edge id=":1046903253_1" function="internal">
        <lane id=":1046903253_1_0" index="0" disallow="tram rail_urban rail rail_electric rail_fast ship" speed="6.47" length="4.19" shape="1003.59,1226.62 1001.11,1226.51 999.57,1225.78"/>
    </edge>
    <edge id=":1046903253_2" function="internal">
        <lane id=":1046903253_2_0" index="0" disallow="tram rail_urban rail rail_electric rail_fast ship" speed="6.47" length="4.85" shape="999.57,1225.78 999.27,1225.64 998.08,1223.99 997.52,1221.57"/>
    </edge>
    <edge id=":1046904644_0" function="internal">
        <lane id=":1046904644_0_0" index="0" disallow="tram rail_urban rail rail_electric rail_fast ship" speed="6.35" length="9.04" shape="929.86,1304.48 932.17,1305.46 934.18,1305.43 935.91,1304.39 937.34,1302.34"/>
    </edge>
    <edge id=":1046904644_1" function="internal">
        <lane id=":1046904644_1_0" index="0" disallow="tram rail_urban rail rail_electric rail_fast ship" speed="13.89" length="11.41" shape="929.86,1304.48 939.75,1310.16"/>
    </edge>
    <edge id=":1046904644_2" function="internal">
        <lane id=":1046904644_2_0" index="0" disallow="tram rail_urban rail rail_electric rail_fast ship" speed="13.89" length="11.41" shape="932.30,1312.57 937.34,1302.34"/>
    </edge>
    <edge id=":1046904644_3" function="internal">
        <lane id=":1046904644_3_0" index="0" disallow="tram rail_urban rail rail_electric rail_fast ship" speed="6.41" length="9.02" shape="932.30,1312.57 933.71,1310.51 935.41,1309.41 937.43,1309.30 939.75,1310.16"/>
    </edge>
    <edge id=":1046928172_0" function="internal">
        <lane id=":1046928172_0_0" index="0" disallow="tram rail_urban rail rail_electric rail_fast ship" speed="13.89" length="5.72" shape="1440.84,1343.32 1442.48,1342.88 1443.57,1342.47 1444.58,1341.89 1446.00,1340.96"/>
    </edge>
    <edge id=":1046928172_1" function="internal">
        <lane id=":1046928172_1_0" index="0" disallow="tram rail_urban rail rail_electric rail_fast ship" speed="5.90" length="5.10" shape="1440.84,1343.32 1442.05,1343.21 1443.19,1343.50 1444.24,1344.18 1445.21,1345.27"/>
    </edge>
    <edge id=":1047887691_0" function="internal">
        <lane id=":1047887691_0_0" index="0" disallow="tram rail_urban rail rail_electric rail_fast ship" speed="13.89" length="0.10" shape="1462.83,1412.93 1462.83,1412.93"/>
    </edge>
    <edge id=":1047904758_0" function="internal">
        <lane id=":1047904758_0_0" index="0" disallow="tram rail_urban rail rail_electric rail_fast ship" speed="13.89" length="9.16" shape="1485.72,1493.70 1483.50,1492.13 1481.93,1491.11 1480.28,1490.25 1477.79,1489.16"/>
    </edge>
    <edge id=":1047904758_1" function="internal">
        <lane id=":1047904758_1_0" index="0" disallow="tram rail_urban rail rail_electric rail_fast ship" speed="6.04" length="7.87" shape="1485.72,1493.70 1483.57,1491.93 1482.32,1490.30 1481.97,1488.79 1482.51,1487.42"/>
    </edge>
    <edge id=":1047904758_2" function="internal">
        <lane id=":1047904758_2_0" index="0" disallow="tram rail_urban rail rail_electric rail_fast ship" speed="6.68" length="1.00" shape="1485.06,1489.37 1484.25,1489.97"/>
    </edge>
    <edge id=":1047904758_3" function="internal">
        <lane id=":1047904758_3_0" index="0" disallow="tram rail_urban rail rail_electric rail_fast ship" speed="3.65" length="0.90" shape="1485.06,1489.37 1484.20,1489.66"/>
    </edge>
    <edge id=":1047904758_4" function="internal">
        <lane id=":1047904758_4_0" index="0" disallow="tram rail_urban rail rail_electric rail_fast ship" speed="6.68" length="6.72" shape="1484.25,1489.97 1483.98,1490.16 1482.41,1490.40 1480.35,1490.06 1477.79,1489.16"/>
    </edge>
    <edge id=":1047904758_5" function="internal">
        <lane id=":1047904758_5_0" index="0" disallow="tram rail_urban rail rail_electric rail_fast ship" speed="3.65" length="3.77" shape="1484.20,1489.66 1483.69,1489.83 1482.81,1489.67 1482.42,1488.86 1482.51,1487.42"/>
    </edge>
    <edge id=":1047933849_0" function="internal">
        <lane id=":1047933849_0_0" index="0" disallow="tram rail_urban rail rail_electric rail_fast ship" speed="13.89" length="0.51" shape="1388.83,1452.67 1388.97,1452.60 1389.06,1452.56 1389.16,1452.53 1389.31,1452.50"/>
    </edge>
    <edge id=":1050294157_0" function="internal">
        <lane id=":1050294157_0_0" index="0" disallow="tram rail_urban rail rail_electric rail_fast ship" speed="6.56" length="5.46" shape="990.41,1652.48 988.70,1650.70 987.97,1648.78 988.08,1647.86"/>
    </edge>
    <edge id=":1050294157_2" function="internal">
        <lane id=":1050294157_2_0" index="0" disallow="tram rail_urban rail rail_electric rail_fast ship" speed="6.56" length="3.62" shape="988.08,1647.86 988.21,1646.73 989.42,1644.55"/>
    </edge>
    <edge id=":1050294157_1" function="internal">
        <lane id=":1050294157_1_0" index="0" disallow="tram rail_urban rail rail_electric rail_fast ship" speed="6.46" length="9.03" shape="981.60,1645.55 983.75,1646.80 985.77,1647.05 987.66,1646.30 989.42,1644.55"/>
    </edge>
    <edge id=":1050294337_0" function="internal">
        <lane id=":1050294337_0_0" index="0" disallow="tram rail_urban rail rail_electric rail_fast ship" speed="13.89" length="12.61" shape="1013.10,1625.27 1003.59,1616.99"/>
    </edge>
    <edge id=":1050294337_1" function="internal">
        <lane id=":1050294337_1_0" index="0" disallow="tram rail_urban rail rail_electric rail_fast ship" speed="10.26" length="7.70" shape="1014.78,1618.99 1011.49,1619.43 1008.53,1619.25 1007.18,1618.83"/>
    </edge>
    <edge id=":1050294337_3" function="internal">
        <lane id=":1050294337_3_0" index="0" disallow="tram rail_urban rail rail_electric rail_fast ship" speed="10.26" length="4.07" shape="1007.18,1618.83 1005.90,1618.43 1003.59,1616.99"/>
    </edge>
    <edge id=":1050294337_2" function="internal">
        <lane id=":1050294337_2_0" index="0" disallow="tram rail_urban rail rail_electric rail_fast ship" speed="6.54" length="9.07" shape="1004.33,1624.92 1005.62,1622.77 1005.92,1620.73 1005.25,1618.80 1003.59,1616.99"/>
    </edge>
    <edge id=":1050295757_0" function="internal">
        <lane id=":1050295757_0_0" index="0" disallow="tram rail_urban rail rail_electric rail_fast ship" speed="13.89" length="10.13" shape="1081.24,1718.73 1073.02,1712.82"/>
    </edge>
    <edge id=":1050295757_1" function="internal">
        <lane id=":1050295757_1_0" index="0" disallow="tram rail_urban rail rail_electric rail_fast ship" speed="6.74" length="8.53" shape="1081.24,1718.73 1079.66,1717.26 1078.85,1715.52 1078.82,1713.49 1079.55,1711.18"/>
    </edge>
    <edge id=":1050295815_0" function="internal">
        <lane id=":1050295815_0_0" index="0" disallow="tram rail_urban rail rail_electric rail_fast ship" speed="6.33" length="9.04" shape="1091.52,1684.98 1092.23,1682.57 1091.96,1680.58 1090.72,1678.99 1088.50,1677.82"/>
    </edge>
    <edge id=":1050295815_1" function="internal">
        <lane id=":1050295815_1_0" index="0" disallow="tram rail_urban rail rail_electric rail_fast ship" speed="6.94" length="9.31" shape="1091.52,1684.98 1092.89,1682.79 1094.60,1681.45 1096.67,1680.95 1099.08,1681.31"/>
    </edge>
    <edge id=":1050299478_0" function="internal">
        <lane id=":1050299478_0_0" index="0" disallow="tram rail_urban rail rail_electric rail_fast ship" speed="6.48" length="9.03" shape="1313.01,1702.49 1312.52,1700.06 1311.37,1698.38 1309.56,1697.44 1307.08,1697.26"/>
    </edge>
    <edge id=":1050299478_1" function="internal">
        <lane id=":1050299478_1_0" index="0" disallow="tram rail_urban rail rail_electric rail_fast ship" speed="6.79" length="9.17" shape="1313.01,1702.49 1313.20,1699.98 1314.11,1698.07 1315.74,1696.75 1318.07,1696.02"/>
    </edge>
    <edge id=":1050308271_0" function="internal">
        <lane id=":1050308271_0_0" index="0" disallow="tram rail_urban rail rail_electric rail_fast ship" speed="13.89" length="11.07" shape="1379.77,1676.93 1380.97,1679.83 1381.83,1682.07 1382.59,1684.34 1383.50,1687.35"/>
    </edge>
    <edge id=":1050308271_1" function="internal">
        <lane id=":1050308271_1_0" index="0" disallow="tram rail_urban rail rail_electric rail_fast ship" speed="6.60" length="4.08" shape="1376.45,1683.58 1378.96,1683.29 1380.46,1683.69"/>
    </edge>
    <edge id=":1050308271_2" function="internal">
        <lane id=":1050308271_2_0" index="0" disallow="tram rail_urban rail rail_electric rail_fast ship" speed="6.60" length="4.95" shape="1380.46,1683.69 1380.98,1683.82 1382.49,1685.18 1383.50,1687.35"/>
    </edge>
    <edge id=":1050311060_0" function="internal">
        <lane id=":1050311060_0_0" index="0" disallow="tram rail_urban rail rail_electric rail_fast ship" speed="6.60" length="7.20" shape="1445.52,1579.85 1445.03,1581.69 1445.14,1583.38 1445.84,1584.92 1447.15,1586.31"/>
    </edge>
    <edge id=":1050311060_1" function="internal">